Z8539_2004
  -OEChem-03182415413D

 41 44  0     1  0  0  0  0  0999 V2000
  -45.6901  -25.6436   -0.1960 C   0  0  0  0  0  0  0  0  0  0  0  0
  -47.5147  -29.1132    5.0129 C   0  0  0  0  0  0  0  0  0  0  0  0
  -46.0728  -26.8853    0.3104 C   0  0  0  0  0  0  0  0  0  0  0  0
  -48.2757  -29.1619    6.1918 C   0  0  0  0  0  0  0  0  0  0  0  0
  -44.3361  -25.3326   -0.3571 C   0  0  0  0  0  0  0  0  0  0  0  0
  -51.6960  -29.5184    5.0847 C   0  0  0  0  0  0  0  0  0  0  0  0
  -49.5276  -29.3234    3.6731 C   0  0  0  0  0  0  0  0  0  0  0  0
  -51.8749  -29.5291    6.4470 C   0  0  0  0  0  0  0  0  0  0  0  0
  -50.3045  -29.3814    4.8409 C   0  0  0  0  0  0  0  0  0  0  0  0
  -48.1275  -29.2022    3.7610 C   0  0  0  0  0  0  0  0  0  0  0  0
  -45.0899  -27.8030    0.6661 C   0  0  0  0  0  0  0  0  0  0  0  0
  -43.7414  -27.4900    0.5202 C   0  0  0  0  0  0  0  0  0  0  0  0
  -49.6640  -29.3033    6.0749 C   0  0  0  0  0  0  0  0  0  0  0  0
  -43.3604  -26.2628    0.0036 C   0  0  0  0  0  0  0  0  0  0  0  0
  -47.3973  -29.1984    2.4688 C   0  0  0  0  0  0  0  0  0  0  0  0
  -43.5038  -30.5357    2.5185 C   0  0  0  0  0  0  0  0  0  0  0  0
  -42.8575  -28.5890    1.0093 C   0  0  0  0  0  0  0  0  0  0  0  0
  -45.2822  -29.1874    1.2172 C   0  0  1  0  0  0  0  0  0  0  0  0
  -43.8389  -29.7551    1.2635 C   0  0  2  0  0  0  0  0  0  0  0  0
  -50.6450  -29.3941    7.0363 N   0  0  0  0  0  0  0  0  0  0  0  0
  -46.0081  -29.1719    2.4790 N   0  0  0  0  0  0  0  0  0  0  0  0
  -48.0595  -29.2288    1.4308 O   0  0  0  0  0  0  0  0  0  0  0  0
  -42.7357  -30.1825    3.4009 O   0  0  0  0  0  0  0  0  0  0  0  0
  -42.0338  -25.9857   -0.1439 O   0  0  0  0  0  0  0  0  0  0  0  0
  -44.1767  -31.7147    2.5405 O   0  0  0  0  0  0  0  0  0  0  0  0
  -46.4503  -24.9166   -0.4675 H   0  0  0  0  0  0  0  0  0  0  0  0
  -46.4393  -29.0064    5.1194 H   0  0  0  0  0  0  0  0  0  0  0  0
  -47.1271  -27.1108    0.4217 H   0  0  0  0  0  0  0  0  0  0  0  0
  -47.7962  -29.0985    7.1633 H   0  0  0  0  0  0  0  0  0  0  0  0
  -44.0584  -24.3630   -0.7597 H   0  0  0  0  0  0  0  0  0  0  0  0
  -52.4766  -29.6071    4.3413 H   0  0  0  0  0  0  0  0  0  0  0  0
  -50.0337  -29.3878    2.7139 H   0  0  0  0  0  0  0  0  0  0  0  0
  -52.7689  -29.6219    7.0460 H   0  0  0  0  0  0  0  0  0  0  0  0
  -42.1277  -28.8700    0.2421 H   0  0  0  0  0  0  0  0  0  0  0  0
  -42.3262  -28.2669    1.9094 H   0  0  0  0  0  0  0  0  0  0  0  0
  -45.8569  -29.7771    0.4914 H   0  0  0  0  0  0  0  0  0  0  0  0
  -43.7143  -30.4530    0.4213 H   0  0  0  0  0  0  0  0  0  0  0  0
  -50.4817  -29.3722    8.0328 H   0  0  0  0  0  0  0  0  0  0  0  0
  -45.4828  -29.1036    3.3439 H   0  0  0  0  0  0  0  0  0  0  0  0
  -41.9477  -25.1014   -0.5387 H   0  0  0  0  0  0  0  0  0  0  0  0
  -43.9638  -32.2338    3.3452 H   0  0  0  0  0  0  0  0  0  0  0  0
  1  3  1  0  0  0  0
  1  5  2  0  0  0  0
  2  4  2  0  0  0  0
  2 10  1  0  0  0  0
  3 11  2  0  0  0  0
  4 13  1  0  0  0  0
  5 14  1  0  0  0  0
  6  8  2  0  0  0  0
  6  9  1  0  0  0  0
  7  9  1  0  0  0  0
  7 10  2  0  0  0  0
  8 20  1  0  0  0  0
  9 13  2  0  0  0  0
 10 15  1  0  0  0  0
 11 12  1  0  0  0  0
 11 18  1  0  0  0  0
 12 14  2  0  0  0  0
 12 17  1  0  0  0  0
 13 20  1  0  0  0  0
 14 24  1  0  0  0  0
 15 21  1  0  0  0  0
 15 22  2  0  0  0  0
 16 19  1  0  0  0  0
 16 23  2  0  0  0  0
 16 25  1  0  0  0  0
 17 19  1  0  0  0  0
 18 19  1  0  0  0  0
 18 21  1  0  0  0  0
  1 26  1  0  0  0  0
  2 27  1  0  0  0  0
  3 28  1  0  0  0  0
  4 29  1  0  0  0  0
  5 30  1  0  0  0  0
  6 31  1  0  0  0  0
  7 32  1  0  0  0  0
  8 33  1  0  0  0  0
 17 34  1  0  0  0  0
 17 35  1  0  0  0  0
 18 36  1  0  0  0  0
 19 37  1  0  0  0  0
 20 38  1  0  0  0  0
 21 39  1  0  0  0  0
 24 40  1  0  0  0  0
 25 41  1  0  0  0  0
M  END
$$$$
