Z8539_2006
  -OEChem-03122418173D

 40 43  0     0  0  0  0  0  0999 V2000
  -45.8404  -26.0637   -0.6781 C   0  0  0  0  0  0  0  0  0  0  0  0
  -44.6679  -25.3225   -0.5605 C   0  0  0  0  0  0  0  0  0  0  0  0
  -45.9871  -27.2811   -0.0032 C   0  0  0  0  0  0  0  0  0  0  0  0
  -47.5518  -29.0527    5.5961 C   0  0  0  0  0  0  0  0  0  0  0  0
  -43.6093  -25.7757    0.2299 C   0  0  0  0  0  0  0  0  0  0  0  0
  -48.1233  -29.0370    6.8746 C   0  0  0  0  0  0  0  0  0  0  0  0
  -49.6280  -29.8876    4.6144 C   0  0  0  0  0  0  0  0  0  0  0  0
  -44.9323  -27.7608    0.8039 C   0  0  0  0  0  0  0  0  0  0  0  0
  -48.2923  -29.4733    4.4848 C   0  0  0  0  0  0  0  0  0  0  0  0
  -44.7391  -28.9367    1.6080 C   0  0  0  0  0  0  0  0  0  0  0  0
  -50.2072  -29.8828    5.8929 C   0  0  0  0  0  0  0  0  0  0  0  0
  -43.7726  -26.9962    0.8952 C   0  0  0  0  0  0  0  0  0  0  0  0
  -49.4491  -29.4602    6.9821 C   0  0  0  0  0  0  0  0  0  0  0  0
  -43.4704  -28.8457    2.1777 C   0  0  0  0  0  0  0  0  0  0  0  0
  -51.4906  -30.0456    7.5800 C   0  0  0  0  0  0  0  0  0  0  0  0
  -47.7143  -29.4636    3.1244 C   0  0  0  0  0  0  0  0  0  0  0  0
  -42.7489  -29.7209    3.0719 C   0  0  0  0  0  0  0  0  0  0  0  0
  -45.7248  -30.0483    1.7527 C   0  0  0  0  0  0  0  0  0  0  0  0
  -51.4751  -30.2451    6.2836 N   0  0  0  0  0  0  0  0  0  0  0  0
  -42.9091  -27.6759    1.7149 N   0  0  0  0  0  0  0  0  0  0  0  0
  -50.3008  -29.5704    8.0525 N   0  0  0  0  0  0  0  0  0  0  0  0
  -46.4138  -29.9233    3.0246 N   0  0  0  0  0  0  0  0  0  0  0  0
  -48.4132  -29.0903    2.1871 O   0  0  0  0  0  0  0  0  0  0  0  0
  -41.5509  -29.6638    3.3175 O   0  0  0  0  0  0  0  0  0  0  0  0
  -52.5279  -30.2705    8.3678 O   0  0  0  0  0  0  0  0  0  0  0  0
  -43.5735  -30.6281    3.6529 O   0  0  0  0  0  0  0  0  0  0  0  0
  -46.6501  -25.6954   -1.3022 H   0  0  0  0  0  0  0  0  0  0  0  0
  -44.5727  -24.3794   -1.0925 H   0  0  0  0  0  0  0  0  0  0  0  0
  -46.9093  -27.8453   -0.1086 H   0  0  0  0  0  0  0  0  0  0  0  0
  -46.5254  -28.7107    5.4859 H   0  0  0  0  0  0  0  0  0  0  0  0
  -42.6936  -25.2007    0.3192 H   0  0  0  0  0  0  0  0  0  0  0  0
  -47.5608  -28.7030    7.7394 H   0  0  0  0  0  0  0  0  0  0  0  0
  -50.2051  -30.2179    3.7563 H   0  0  0  0  0  0  0  0  0  0  0  0
  -46.4529  -30.0424    0.9352 H   0  0  0  0  0  0  0  0  0  0  0  0
  -45.2272  -31.0231    1.7340 H   0  0  0  0  0  0  0  0  0  0  0  0
  -41.9837  -27.3533    1.9614 H   0  0  0  0  0  0  0  0  0  0  0  0
  -50.0866  -29.3432    9.0143 H   0  0  0  0  0  0  0  0  0  0  0  0
  -45.9174  -30.2321    3.8555 H   0  0  0  0  0  0  0  0  0  0  0  0
  -53.2311  -30.6050    7.7840 H   0  0  0  0  0  0  0  0  0  0  0  0
  -43.0957  -31.2152    4.2760 H   0  0  0  0  0  0  0  0  0  0  0  0
  1  2  1  0  0  0  0
  1  3  2  0  0  0  0
  2  5  2  0  0  0  0
  3  8  1  0  0  0  0
  4  6  2  0  0  0  0
  4  9  1  0  0  0  0
  5 12  1  0  0  0  0
  6 13  1  0  0  0  0
  7  9  2  0  0  0  0
  7 11  1  0  0  0  0
  8 10  1  0  0  0  0
  8 12  2  0  0  0  0
  9 16  1  0  0  0  0
 10 14  2  0  0  0  0
 10 18  1  0  0  0  0
 11 13  2  0  0  0  0
 11 19  1  0  0  0  0
 12 20  1  0  0  0  0
 13 21  1  0  0  0  0
 14 17  1  0  0  0  0
 14 20  1  0  0  0  0
 15 19  2  0  0  0  0
 15 21  1  0  0  0  0
 15 25  1  0  0  0  0
 16 22  1  0  0  0  0
 16 23  2  0  0  0  0
 17 24  2  0  0  0  0
 17 26  1  0  0  0  0
 18 22  1  0  0  0  0
  1 27  1  0  0  0  0
  2 28  1  0  0  0  0
  3 29  1  0  0  0  0
  4 30  1  0  0  0  0
  5 31  1  0  0  0  0
  6 32  1  0  0  0  0
  7 33  1  0  0  0  0
 18 34  1  0  0  0  0
 18 35  1  0  0  0  0
 20 36  1  0  0  0  0
 21 37  1  0  0  0  0
 22 38  1  0  0  0  0
 25 39  1  0  0  0  0
 26 40  1  0  0  0  0
M  END
$$$$
