Z8539_2005
  -OEChem-03122418193D

 39 42  0     0  0  0  0  0  0999 V2000
  -45.6209  -25.7815   -0.7217 C   0  0  0  0  0  0  0  0  0  0  0  0
  -44.3671  -25.1781   -0.7272 C   0  0  0  0  0  0  0  0  0  0  0  0
  -45.8018  -27.0449   -0.1486 C   0  0  0  0  0  0  0  0  0  0  0  0
  -47.5683  -29.0596    5.0747 C   0  0  0  0  0  0  0  0  0  0  0  0
  -43.2610  -25.8185   -0.1641 C   0  0  0  0  0  0  0  0  0  0  0  0
  -48.2356  -29.0638    6.3073 C   0  0  0  0  0  0  0  0  0  0  0  0
  -49.6762  -29.2974    3.8705 C   0  0  0  0  0  0  0  0  0  0  0  0
  -51.7929  -29.3975    6.6717 C   0  0  0  0  0  0  0  0  0  0  0  0
  -44.7035  -27.7095    0.4391 C   0  0  0  0  0  0  0  0  0  0  0  0
  -48.2733  -29.1882    3.8715 C   0  0  0  0  0  0  0  0  0  0  0  0
  -44.5306  -28.9778    1.0966 C   0  0  0  0  0  0  0  0  0  0  0  0
  -50.3541  -29.3105    5.0999 C   0  0  0  0  0  0  0  0  0  0  0  0
  -43.4627  -27.0797    0.4081 C   0  0  0  0  0  0  0  0  0  0  0  0
  -49.6243  -29.1985    6.2781 C   0  0  0  0  0  0  0  0  0  0  0  0
  -43.1864  -29.0775    1.4510 C   0  0  0  0  0  0  0  0  0  0  0  0
  -47.5942  -29.2164    2.5526 C   0  0  0  0  0  0  0  0  0  0  0  0
  -42.4360  -30.1157    2.1171 C   0  0  0  0  0  0  0  0  0  0  0  0
  -45.6042  -29.9984    1.2826 C   0  0  0  0  0  0  0  0  0  0  0  0
  -51.6987  -29.4289    5.3619 N   0  0  0  0  0  0  0  0  0  0  0  0
  -50.5710  -29.2556    7.2688 N   0  0  0  0  0  0  0  0  0  0  0  0
  -42.5694  -27.9286    1.0075 N   0  0  0  0  0  0  0  0  0  0  0  0
  -46.3178  -29.7589    2.5257 N   0  0  0  0  0  0  0  0  0  0  0  0
  -48.2061  -28.8111    1.5675 O   0  0  0  0  0  0  0  0  0  0  0  0
  -41.2216  -30.2640    2.0667 O   0  0  0  0  0  0  0  0  0  0  0  0
  -43.2449  -30.9156    2.8568 O   0  0  0  0  0  0  0  0  0  0  0  0
  -46.4690  -25.2704   -1.1689 H   0  0  0  0  0  0  0  0  0  0  0  0
  -44.2448  -24.1979   -1.1802 H   0  0  0  0  0  0  0  0  0  0  0  0
  -46.7864  -27.5009   -0.1656 H   0  0  0  0  0  0  0  0  0  0  0  0
  -46.4876  -28.9422    5.0836 H   0  0  0  0  0  0  0  0  0  0  0  0
  -42.2811  -25.3534   -0.1760 H   0  0  0  0  0  0  0  0  0  0  0  0
  -47.6917  -28.9688    7.2406 H   0  0  0  0  0  0  0  0  0  0  0  0
  -50.2393  -29.3929    2.9470 H   0  0  0  0  0  0  0  0  0  0  0  0
  -52.7072  -29.4736    7.2422 H   0  0  0  0  0  0  0  0  0  0  0  0
  -46.3058  -29.9777    0.4420 H   0  0  0  0  0  0  0  0  0  0  0  0
  -45.1969  -31.0125    1.3265 H   0  0  0  0  0  0  0  0  0  0  0  0
  -50.3968  -29.2105    8.2636 H   0  0  0  0  0  0  0  0  0  0  0  0
  -41.5844  -27.7330    1.1202 H   0  0  0  0  0  0  0  0  0  0  0  0
  -45.8809  -30.0885    3.3806 H   0  0  0  0  0  0  0  0  0  0  0  0
  -42.7380  -31.6123    3.3257 H   0  0  0  0  0  0  0  0  0  0  0  0
  1  2  1  0  0  0  0
  1  3  2  0  0  0  0
  2  5  2  0  0  0  0
  3  9  1  0  0  0  0
  4  6  2  0  0  0  0
  4 10  1  0  0  0  0
  5 13  1  0  0  0  0
  6 14  1  0  0  0  0
  7 10  2  0  0  0  0
  7 12  1  0  0  0  0
  8 19  2  0  0  0  0
  8 20  1  0  0  0  0
  9 11  1  0  0  0  0
  9 13  2  0  0  0  0
 10 16  1  0  0  0  0
 11 15  2  0  0  0  0
 11 18  1  0  0  0  0
 12 14  2  0  0  0  0
 12 19  1  0  0  0  0
 13 21  1  0  0  0  0
 14 20  1  0  0  0  0
 15 17  1  0  0  0  0
 15 21  1  0  0  0  0
 16 22  1  0  0  0  0
 16 23  2  0  0  0  0
 17 24  2  0  0  0  0
 17 25  1  0  0  0  0
 18 22  1  0  0  0  0
  1 26  1  0  0  0  0
  2 27  1  0  0  0  0
  3 28  1  0  0  0  0
  4 29  1  0  0  0  0
  5 30  1  0  0  0  0
  6 31  1  0  0  0  0
  7 32  1  0  0  0  0
  8 33  1  0  0  0  0
 18 34  1  0  0  0  0
 18 35  1  0  0  0  0
 20 36  1  0  0  0  0
 21 37  1  0  0  0  0
 22 38  1  0  0  0  0
 25 39  1  0  0  0  0
M  END
$$$$
