Lig3
  -OEChem-10162320293D

 27 29  0     1  0  0  0  0  0999 V2000
   -7.7593    1.8624  -22.9573 C   0  0  0  0  0  0  0  0  0  0  0  0
   -6.7067    1.6645  -23.8518 C   0  0  0  0  0  0  0  0  0  0  0  0
   -7.1743    3.7984  -24.8915 C   0  0  0  0  0  0  0  0  0  0  0  0
   -8.2218    4.0024  -23.9871 C   0  0  0  0  0  0  0  0  0  0  0  0
   -8.5254    3.0332  -23.0036 C   0  0  0  0  0  0  0  0  0  0  0  0
   -6.4275    2.6306  -24.8120 C   0  0  0  0  0  0  0  0  0  0  0  0
  -10.4239    5.0128  -23.5575 C   0  0  0  0  0  0  0  0  0  0  0  0
   -9.2172    6.5484  -21.7496 C   0  0  0  0  0  0  0  0  0  0  0  0
   -8.9810    5.3183  -23.9737 C   0  0  1  0  0  0  0  0  0  0  0  0
   -8.3061    6.2401  -22.9354 C   0  0  1  0  0  0  0  0  0  0  0  0
  -10.3595    4.4550  -22.1332 C   0  0  1  0  0  0  0  0  0  0  0  0
   -9.5929    3.2131  -22.1286 N   0  0  0  0  0  0  0  0  0  0  0  0
   -9.7956    5.3743  -21.1888 O   0  0  0  0  0  0  0  0  0  0  0  0
   -7.9235    7.4529  -23.5720 O   0  0  0  0  0  0  0  0  0  0  0  0
   -5.4122    2.4400  -25.6653 F   0  0  0  0  0  0  0  0  0  0  0  0
   -7.9703    1.1003  -22.2113 H   0  0  0  0  0  0  0  0  0  0  0  0
   -6.1063    0.7624  -23.7956 H   0  0  0  0  0  0  0  0  0  0  0  0
   -6.9290    4.5487  -25.6372 H   0  0  0  0  0  0  0  0  0  0  0  0
  -11.0298    5.9257  -23.5947 H   0  0  0  0  0  0  0  0  0  0  0  0
  -10.8856    4.2875  -24.2400 H   0  0  0  0  0  0  0  0  0  0  0  0
   -8.6402    7.0467  -20.9625 H   0  0  0  0  0  0  0  0  0  0  0  0
  -10.0113    7.2536  -22.0234 H   0  0  0  0  0  0  0  0  0  0  0  0
   -8.9786    5.7589  -24.9780 H   0  0  0  0  0  0  0  0  0  0  0  0
   -7.3853    5.7813  -22.5517 H   0  0  0  0  0  0  0  0  0  0  0  0
  -11.3729    4.2292  -21.7859 H   0  0  0  0  0  0  0  0  0  0  0  0
   -9.6935    2.5802  -21.3447 H   0  0  0  0  0  0  0  0  0  0  0  0
   -7.4709    7.9965  -22.9052 H   0  0  0  0  0  0  0  0  0  0  0  0
  1  2  1  0  0  0  0
  1  5  2  0  0  0  0
  2  6  2  0  0  0  0
  3  4  2  0  0  0  0
  3  6  1  0  0  0  0
  4  5  1  0  0  0  0
  4  9  1  0  0  0  0
  5 12  1  0  0  0  0
  6 15  1  0  0  0  0
  7  9  1  0  0  0  0
  7 11  1  0  0  0  0
  8 10  1  0  0  0  0
  8 13  1  0  0  0  0
  9 10  1  0  0  0  0
 10 14  1  0  0  0  0
 11 12  1  0  0  0  0
 11 13  1  0  0  0  0
  1 16  1  0  0  0  0
  2 17  1  0  0  0  0
  3 18  1  0  0  0  0
  7 19  1  0  0  0  0
  7 20  1  0  0  0  0
  8 21  1  0  0  0  0
  8 22  1  0  0  0  0
  9 23  1  0  0  0  0
 10 24  1  0  0  0  0
 11 25  1  0  0  0  0
 12 26  1  0  0  0  0
 14 27  1  0  0  0  0
M  END
$$$$
