Lig16
  -OEChem-10162319283D

 67 71  0     1  0  0  0  0  0999 V2000
   -0.6059   -2.8683  -28.2898 C   0  0  0  0  0  0  0  0  0  0  0  0
    0.7252   -2.6115  -28.5832 C   0  0  0  0  0  0  0  0  0  0  0  0
   -0.9749   -3.2023  -26.9906 C   0  0  0  0  0  0  0  0  0  0  0  0
   -6.8916    1.6099  -24.2082 C   0  0  0  0  0  0  0  0  0  0  0  0
   -7.8257    1.9004  -23.2086 C   0  0  0  0  0  0  0  0  0  0  0  0
    1.6923   -2.7051  -27.5829 C   0  0  0  0  0  0  0  0  0  0  0  0
   -6.7762    3.9456  -24.7960 C   0  0  0  0  0  0  0  0  0  0  0  0
   -0.0270   -3.2309  -25.9477 C   0  0  0  0  0  0  0  0  0  0  0  0
   -7.7026    4.2407  -23.7880 C   0  0  0  0  0  0  0  0  0  0  0  0
   -6.3506    2.6303  -25.0021 C   0  0  0  0  0  0  0  0  0  0  0  0
   -8.2400    3.2162  -22.9796 C   0  0  0  0  0  0  0  0  0  0  0  0
    1.3416   -3.0239  -26.2613 C   0  0  0  0  0  0  0  0  0  0  0  0
   -2.3213   -1.7040  -24.0887 C   0  0  0  0  0  0  0  0  0  0  0  0
   -3.3364    0.8004  -25.6736 C   0  0  0  0  0  0  0  0  0  0  0  0
   -1.9606   -5.3557  -24.2539 C   0  0  0  0  0  0  0  0  0  0  0  0
   -0.4940   -4.9544  -24.1501 C   0  0  0  0  0  0  0  0  0  0  0  0
   -8.3965    5.8527  -22.0433 C   0  0  0  0  0  0  0  0  0  0  0  0
   -2.6760   -4.1214  -23.7410 C   0  0  0  0  0  0  0  0  0  0  0  0
  -10.5011    5.2932  -23.9634 C   0  0  0  0  0  0  0  0  0  0  0  0
   -0.4903   -3.4585  -24.5172 C   0  0  2  0  0  0  0  0  0  0  0  0
   -8.1424    5.6678  -23.5411 C   0  0  2  0  0  0  0  0  0  0  0  0
   -9.5231    4.8947  -21.6583 C   0  0  1  0  0  0  0  0  0  0  0  0
  -10.7686    5.2936  -22.4597 C   0  0  2  0  0  0  0  0  0  0  0  0
    4.0937   -3.5733  -25.8906 C   0  0  0  0  0  0  0  0  0  0  0  0
   -5.2907    2.3234  -26.0254 C   0  0  0  0  0  0  0  0  0  0  0  0
   -1.4987   -0.6198  -24.7751 C   0  0  0  0  0  0  0  0  0  0  0  0
   -9.1210    3.5150  -21.9432 N   0  0  0  0  0  0  0  0  0  0  0  0
   -1.8593   -3.0077  -24.2032 N   0  0  0  0  0  0  0  0  0  0  0  0
   -4.0377    1.9651  -25.3809 N   0  0  0  0  0  0  0  0  0  0  0  0
   -2.2846    0.6001  -24.7766 N   0  0  0  0  0  0  0  0  0  0  0  0
   -3.3603   -1.4267  -23.4821 O   0  0  0  0  0  0  0  0  0  0  0  0
   -3.6388    0.0133  -26.5700 O   0  0  0  0  0  0  0  0  0  0  0  0
   -9.3095    6.0066  -24.3054 O   0  0  0  0  0  0  0  0  0  0  0  0
  -11.8616    4.4478  -22.1370 O   0  0  0  0  0  0  0  0  0  0  0  0
    2.6045   -3.1018  -24.9729 S   0  0  0  0  0  0  0  0  0  0  0  0
   -1.3623   -2.7875  -29.0638 H   0  0  0  0  0  0  0  0  0  0  0  0
    1.0158   -2.3332  -29.5914 H   0  0  0  0  0  0  0  0  0  0  0  0
   -2.0276   -3.3863  -26.7906 H   0  0  0  0  0  0  0  0  0  0  0  0
   -6.5745    0.5795  -24.3514 H   0  0  0  0  0  0  0  0  0  0  0  0
   -8.2152    1.0879  -22.5993 H   0  0  0  0  0  0  0  0  0  0  0  0
    2.7202   -2.4975  -27.8639 H   0  0  0  0  0  0  0  0  0  0  0  0
   -6.3672    4.7499  -25.4029 H   0  0  0  0  0  0  0  0  0  0  0  0
   -2.2255   -5.5421  -25.3012 H   0  0  0  0  0  0  0  0  0  0  0  0
   -2.2018   -6.2518  -23.6761 H   0  0  0  0  0  0  0  0  0  0  0  0
   -0.1666   -5.0779  -23.1100 H   0  0  0  0  0  0  0  0  0  0  0  0
    0.1501   -5.5772  -24.7789 H   0  0  0  0  0  0  0  0  0  0  0  0
   -7.4901    5.6383  -21.4632 H   0  0  0  0  0  0  0  0  0  0  0  0
   -8.6951    6.8865  -21.8336 H   0  0  0  0  0  0  0  0  0  0  0  0
   -3.7013   -4.0301  -24.1114 H   0  0  0  0  0  0  0  0  0  0  0  0
   -2.6921   -4.0930  -22.6454 H   0  0  0  0  0  0  0  0  0  0  0  0
  -10.4582    4.2743  -24.3669 H   0  0  0  0  0  0  0  0  0  0  0  0
  -11.3374    5.7716  -24.4858 H   0  0  0  0  0  0  0  0  0  0  0  0
    0.1507   -2.8994  -23.8278 H   0  0  0  0  0  0  0  0  0  0  0  0
   -7.3456    6.3549  -23.8474 H   0  0  0  0  0  0  0  0  0  0  0  0
   -9.7390    4.9669  -20.5864 H   0  0  0  0  0  0  0  0  0  0  0  0
  -11.0449    6.3124  -22.1578 H   0  0  0  0  0  0  0  0  0  0  0  0
    4.8718   -3.8578  -25.1767 H   0  0  0  0  0  0  0  0  0  0  0  0
    4.4651   -2.7270  -26.4735 H   0  0  0  0  0  0  0  0  0  0  0  0
    3.8997   -4.4274  -26.5450 H   0  0  0  0  0  0  0  0  0  0  0  0
   -5.6316    1.5163  -26.6830 H   0  0  0  0  0  0  0  0  0  0  0  0
   -5.0867    3.1954  -26.6560 H   0  0  0  0  0  0  0  0  0  0  0  0
   -1.3004   -0.8733  -25.8158 H   0  0  0  0  0  0  0  0  0  0  0  0
   -0.5631   -0.4391  -24.2420 H   0  0  0  0  0  0  0  0  0  0  0  0
   -9.5819    2.7565  -21.4547 H   0  0  0  0  0  0  0  0  0  0  0  0
   -3.6651    2.5893  -24.6717 H   0  0  0  0  0  0  0  0  0  0  0  0
   -2.0881    1.3093  -24.0775 H   0  0  0  0  0  0  0  0  0  0  0  0
  -12.6413    4.7895  -22.6074 H   0  0  0  0  0  0  0  0  0  0  0  0
  1  2  1  0  0  0  0
  1  3  2  0  0  0  0
  2  6  2  0  0  0  0
  3  8  1  0  0  0  0
  4  5  1  0  0  0  0
  4 10  2  0  0  0  0
  5 11  2  0  0  0  0
  6 12  1  0  0  0  0
  7  9  2  0  0  0  0
  7 10  1  0  0  0  0
  8 12  2  0  0  0  0
  8 20  1  0  0  0  0
  9 11  1  0  0  0  0
  9 21  1  0  0  0  0
 10 25  1  0  0  0  0
 11 27  1  0  0  0  0
 12 35  1  0  0  0  0
 13 26  1  0  0  0  0
 13 28  1  0  0  0  0
 13 31  2  0  0  0  0
 14 29  1  0  0  0  0
 14 30  1  0  0  0  0
 14 32  2  0  0  0  0
 15 16  1  0  0  0  0
 15 18  1  0  0  0  0
 16 20  1  0  0  0  0
 17 21  1  0  0  0  0
 17 22  1  0  0  0  0
 18 28  1  0  0  0  0
 19 23  1  0  0  0  0
 19 33  1  0  0  0  0
 20 28  1  0  0  0  0
 21 33  1  0  0  0  0
 22 23  1  0  0  0  0
 22 27  1  0  0  0  0
 23 34  1  0  0  0  0
 24 35  1  0  0  0  0
 25 29  1  0  0  0  0
 26 30  1  0  0  0  0
  1 36  1  0  0  0  0
  2 37  1  0  0  0  0
  3 38  1  0  0  0  0
  4 39  1  0  0  0  0
  5 40  1  0  0  0  0
  6 41  1  0  0  0  0
  7 42  1  0  0  0  0
 15 43  1  0  0  0  0
 15 44  1  0  0  0  0
 16 45  1  0  0  0  0
 16 46  1  0  0  0  0
 17 47  1  0  0  0  0
 17 48  1  0  0  0  0
 18 49  1  0  0  0  0
 18 50  1  0  0  0  0
 19 51  1  0  0  0  0
 19 52  1  0  0  0  0
 20 53  1  0  0  0  0
 21 54  1  0  0  0  0
 22 55  1  0  0  0  0
 23 56  1  0  0  0  0
 24 57  1  0  0  0  0
 24 58  1  0  0  0  0
 24 59  1  0  0  0  0
 25 60  1  0  0  0  0
 25 61  1  0  0  0  0
 26 62  1  0  0  0  0
 26 63  1  0  0  0  0
 27 64  1  0  0  0  0
 29 65  1  0  0  0  0
 30 66  1  0  0  0  0
 34 67  1  0  0  0  0
M  END
$$$$
