Lig39
  -OEChem-10162321283D

 58 63  0     1  0  0  0  0  0999 V2000
   -6.5802    1.6072  -23.9148 C   0  0  0  0  0  0  0  0  0  0  0  0
   -7.5944    1.8795  -22.9912 C   0  0  0  0  0  0  0  0  0  0  0  0
   -7.0653    3.6702  -25.0643 C   0  0  0  0  0  0  0  0  0  0  0  0
   -8.0938    3.9388  -24.1514 C   0  0  0  0  0  0  0  0  0  0  0  0
   -6.3018    2.5006  -24.9569 C   0  0  0  0  0  0  0  0  0  0  0  0
   -8.3599    3.0459  -23.0911 C   0  0  0  0  0  0  0  0  0  0  0  0
   -2.0427   -1.4451  -23.7728 C   0  0  0  0  0  0  0  0  0  0  0  0
   -0.5058   -1.4249  -25.5097 C   0  0  0  0  0  0  0  0  0  0  0  0
   -3.2937    0.6650  -25.7726 C   0  0  0  0  0  0  0  0  0  0  0  0
   -2.7666   -3.9468  -25.4293 C   0  0  0  0  0  0  0  0  0  0  0  0
   -1.5908   -4.0301  -26.4141 C   0  0  0  0  0  0  0  0  0  0  0  0
  -10.3422    4.9182  -23.7572 C   0  0  0  0  0  0  0  0  0  0  0  0
   -0.8994   -4.9566  -24.3624 C   0  0  0  0  0  0  0  0  0  0  0  0
   -8.2476    6.1512  -22.1635 C   0  0  0  0  0  0  0  0  0  0  0  0
   -8.9347    5.1938  -24.2828 C   0  0  1  0  0  0  0  0  0  0  0  0
   -1.3236   -2.7583  -23.6771 C   0  0  2  0  0  0  0  0  0  0  0  0
   -0.2202   -2.6984  -24.7441 C   0  0  1  0  0  0  0  0  0  0  0  0
   -2.0870   -4.0394  -24.0462 C   0  0  1  0  0  0  0  0  0  0  0  0
   -0.3746   -4.0429  -25.4816 C   0  0  2  0  0  0  0  0  0  0  0  0
  -10.1963    4.5093  -22.2907 C   0  0  2  0  0  0  0  0  0  0  0  0
   -9.5347    5.6471  -21.5022 C   0  0  2  0  0  0  0  0  0  0  0  0
   -5.2682    2.1795  -26.0032 C   0  0  0  0  0  0  0  0  0  0  0  0
   -1.9141    0.6181  -25.1428 C   0  0  0  0  0  0  0  0  0  0  0  0
   -9.3982    3.2898  -22.1952 N   0  0  0  0  0  0  0  0  0  0  0  0
   -1.5144   -0.7498  -24.8433 N   0  0  0  0  0  0  0  0  0  0  0  0
   -3.9713    1.8344  -25.4468 N   0  0  0  0  0  0  0  0  0  0  0  0
   -2.9282   -1.0873  -23.0092 O   0  0  0  0  0  0  0  0  0  0  0  0
    0.0994   -1.0757  -26.5135 O   0  0  0  0  0  0  0  0  0  0  0  0
   -3.7160   -0.2167  -26.5158 O   0  0  0  0  0  0  0  0  0  0  0  0
   -8.3640    6.3076  -23.5829 O   0  0  0  0  0  0  0  0  0  0  0  0
  -10.4698    6.7264  -21.4286 O   0  0  0  0  0  0  0  0  0  0  0  0
   -6.0186    0.6812  -23.8195 H   0  0  0  0  0  0  0  0  0  0  0  0
   -7.7895    1.1630  -22.1964 H   0  0  0  0  0  0  0  0  0  0  0  0
   -6.8765    4.3682  -25.8770 H   0  0  0  0  0  0  0  0  0  0  0  0
   -3.3494   -3.0321  -25.5628 H   0  0  0  0  0  0  0  0  0  0  0  0
   -3.4378   -4.7988  -25.5874 H   0  0  0  0  0  0  0  0  0  0  0  0
   -1.6417   -4.9685  -26.9803 H   0  0  0  0  0  0  0  0  0  0  0  0
   -1.5814   -3.2112  -27.1369 H   0  0  0  0  0  0  0  0  0  0  0  0
  -10.9630    5.8178  -23.8418 H   0  0  0  0  0  0  0  0  0  0  0  0
  -10.8274    4.1213  -24.3348 H   0  0  0  0  0  0  0  0  0  0  0  0
   -0.2006   -5.0656  -23.5258 H   0  0  0  0  0  0  0  0  0  0  0  0
   -1.2012   -5.9492  -24.7143 H   0  0  0  0  0  0  0  0  0  0  0  0
   -7.9705    7.1315  -21.7613 H   0  0  0  0  0  0  0  0  0  0  0  0
   -7.4115    5.4755  -21.9524 H   0  0  0  0  0  0  0  0  0  0  0  0
   -9.0070    5.4778  -25.3390 H   0  0  0  0  0  0  0  0  0  0  0  0
   -0.8792   -2.8423  -22.6781 H   0  0  0  0  0  0  0  0  0  0  0  0
    0.7632   -2.6155  -24.2686 H   0  0  0  0  0  0  0  0  0  0  0  0
   -2.7562   -4.3899  -23.2579 H   0  0  0  0  0  0  0  0  0  0  0  0
    0.5426   -4.3899  -25.9619 H   0  0  0  0  0  0  0  0  0  0  0  0
  -11.1931    4.3099  -21.8797 H   0  0  0  0  0  0  0  0  0  0  0  0
   -9.3254    5.3344  -20.4729 H   0  0  0  0  0  0  0  0  0  0  0  0
   -5.6398    1.3696  -26.6396 H   0  0  0  0  0  0  0  0  0  0  0  0
   -5.0921    3.0495  -26.6457 H   0  0  0  0  0  0  0  0  0  0  0  0
   -1.2047    1.0715  -25.8424 H   0  0  0  0  0  0  0  0  0  0  0  0
   -1.9066    1.1827  -24.2044 H   0  0  0  0  0  0  0  0  0  0  0  0
   -9.4827    2.7085  -21.3699 H   0  0  0  0  0  0  0  0  0  0  0  0
   -3.5285    2.5135  -24.8339 H   0  0  0  0  0  0  0  0  0  0  0  0
  -10.0589    7.4391  -20.9109 H   0  0  0  0  0  0  0  0  0  0  0  0
  1  2  1  0  0  0  0
  1  5  2  0  0  0  0
  2  6  2  0  0  0  0
  3  4  2  0  0  0  0
  3  5  1  0  0  0  0
  4  6  1  0  0  0  0
  4 15  1  0  0  0  0
  5 22  1  0  0  0  0
  6 24  1  0  0  0  0
  7 16  1  0  0  0  0
  7 25  1  0  0  0  0
  7 27  2  0  0  0  0
  8 17  1  0  0  0  0
  8 25  1  0  0  0  0
  8 28  2  0  0  0  0
  9 23  1  0  0  0  0
  9 26  1  0  0  0  0
  9 29  2  0  0  0  0
 10 11  1  0  0  0  0
 10 18  1  0  0  0  0
 11 19  1  0  0  0  0
 12 15  1  0  0  0  0
 12 20  1  0  0  0  0
 13 18  1  0  0  0  0
 13 19  1  0  0  0  0
 14 21  1  0  0  0  0
 14 30  1  0  0  0  0
 15 30  1  0  0  0  0
 16 17  1  0  0  0  0
 16 18  1  0  0  0  0
 17 19  1  0  0  0  0
 20 21  1  0  0  0  0
 20 24  1  0  0  0  0
 21 31  1  0  0  0  0
 22 26  1  0  0  0  0
 23 25  1  0  0  0  0
  1 32  1  0  0  0  0
  2 33  1  0  0  0  0
  3 34  1  0  0  0  0
 10 35  1  0  0  0  0
 10 36  1  0  0  0  0
 11 37  1  0  0  0  0
 11 38  1  0  0  0  0
 12 39  1  0  0  0  0
 12 40  1  0  0  0  0
 13 41  1  0  0  0  0
 13 42  1  0  0  0  0
 14 43  1  0  0  0  0
 14 44  1  0  0  0  0
 15 45  1  0  0  0  0
 16 46  1  0  0  0  0
 17 47  1  0  0  0  0
 18 48  1  0  0  0  0
 19 49  1  0  0  0  0
 20 50  1  0  0  0  0
 21 51  1  0  0  0  0
 22 52  1  0  0  0  0
 22 53  1  0  0  0  0
 23 54  1  0  0  0  0
 23 55  1  0  0  0  0
 24 56  1  0  0  0  0
 26 57  1  0  0  0  0
 31 58  1  0  0  0  0
M  END
$$$$
