Lig14
  -OEChem-10162319343D

 67 71  0     1  0  0  0  0  0999 V2000
   -0.5529   -2.9756  -28.2762 C   0  0  0  0  0  0  0  0  0  0  0  0
    0.7689   -2.6500  -28.5413 C   0  0  0  0  0  0  0  0  0  0  0  0
   -0.9398   -3.2917  -26.9774 C   0  0  0  0  0  0  0  0  0  0  0  0
   -6.6603    1.6868  -23.9675 C   0  0  0  0  0  0  0  0  0  0  0  0
   -7.6963    1.9065  -23.0556 C   0  0  0  0  0  0  0  0  0  0  0  0
    1.7096   -2.6564  -27.5123 C   0  0  0  0  0  0  0  0  0  0  0  0
   -7.1948    3.7539  -25.0877 C   0  0  0  0  0  0  0  0  0  0  0  0
   -0.0209   -3.2437  -25.9096 C   0  0  0  0  0  0  0  0  0  0  0  0
   -8.2457    3.9701  -24.1864 C   0  0  0  0  0  0  0  0  0  0  0  0
   -6.3843    2.6176  -24.9785 C   0  0  0  0  0  0  0  0  0  0  0  0
   -8.4897    3.0545  -23.1395 C   0  0  0  0  0  0  0  0  0  0  0  0
    1.3404   -2.9632  -26.1927 C   0  0  0  0  0  0  0  0  0  0  0  0
   -2.3852   -1.7538  -24.1290 C   0  0  0  0  0  0  0  0  0  0  0  0
   -3.3620    0.8105  -25.6490 C   0  0  0  0  0  0  0  0  0  0  0  0
   -1.9462   -5.4008  -24.2418 C   0  0  0  0  0  0  0  0  0  0  0  0
   -0.4912   -4.9662  -24.1103 C   0  0  0  0  0  0  0  0  0  0  0  0
  -10.5072    4.9123  -23.7418 C   0  0  0  0  0  0  0  0  0  0  0  0
   -2.7024   -4.1761  -23.7650 C   0  0  0  0  0  0  0  0  0  0  0  0
   -8.3838    6.1568  -22.1951 C   0  0  0  0  0  0  0  0  0  0  0  0
   -0.5103   -3.4737  -24.4886 C   0  0  2  0  0  0  0  0  0  0  0  0
   -9.1159    5.2071  -24.2992 C   0  0  1  0  0  0  0  0  0  0  0  0
  -10.3211    4.4882  -22.2845 C   0  0  2  0  0  0  0  0  0  0  0  0
   -9.6365    5.6147  -21.4970 C   0  0  2  0  0  0  0  0  0  0  0  0
    4.0817   -3.4525  -25.7355 C   0  0  0  0  0  0  0  0  0  0  0  0
   -5.2783    2.3819  -25.9743 C   0  0  0  0  0  0  0  0  0  0  0  0
   -1.5503   -0.6645  -24.7928 C   0  0  0  0  0  0  0  0  0  0  0  0
   -9.5231    3.2667  -22.2302 N   0  0  0  0  0  0  0  0  0  0  0  0
   -1.8957   -3.0499  -24.2140 N   0  0  0  0  0  0  0  0  0  0  0  0
   -4.0342    1.9869  -25.3343 N   0  0  0  0  0  0  0  0  0  0  0  0
   -2.3094    0.5710  -24.7642 N   0  0  0  0  0  0  0  0  0  0  0  0
   -3.4548   -1.4899  -23.5724 O   0  0  0  0  0  0  0  0  0  0  0  0
   -3.6891    0.0437  -26.5546 O   0  0  0  0  0  0  0  0  0  0  0  0
   -8.5511    6.3290  -23.6077 O   0  0  0  0  0  0  0  0  0  0  0  0
  -10.5788    6.6808  -21.3532 O   0  0  0  0  0  0  0  0  0  0  0  0
    2.5750   -2.9278  -24.8767 S   0  0  0  0  0  0  0  0  0  0  0  0
   -1.2891   -2.9647  -29.0734 H   0  0  0  0  0  0  0  0  0  0  0  0
    1.0726   -2.3858  -29.5495 H   0  0  0  0  0  0  0  0  0  0  0  0
   -1.9858   -3.5300  -26.8004 H   0  0  0  0  0  0  0  0  0  0  0  0
   -6.0677    0.7796  -23.8765 H   0  0  0  0  0  0  0  0  0  0  0  0
   -7.8757    1.1710  -22.2746 H   0  0  0  0  0  0  0  0  0  0  0  0
    2.7313   -2.3924  -27.7684 H   0  0  0  0  0  0  0  0  0  0  0  0
   -7.0135    4.4742  -25.8821 H   0  0  0  0  0  0  0  0  0  0  0  0
   -2.1822   -5.6097  -25.2917 H   0  0  0  0  0  0  0  0  0  0  0  0
   -2.1812   -6.2934  -23.6561 H   0  0  0  0  0  0  0  0  0  0  0  0
   -0.1837   -5.0748  -23.0627 H   0  0  0  0  0  0  0  0  0  0  0  0
    0.1797   -5.5788  -24.7207 H   0  0  0  0  0  0  0  0  0  0  0  0
  -11.1384    5.8068  -23.7992 H   0  0  0  0  0  0  0  0  0  0  0  0
  -10.9987    4.1168  -24.3160 H   0  0  0  0  0  0  0  0  0  0  0  0
   -3.7174   -4.1115  -24.1680 H   0  0  0  0  0  0  0  0  0  0  0  0
   -2.7531   -4.1362  -22.6709 H   0  0  0  0  0  0  0  0  0  0  0  0
   -8.1145    7.1381  -21.7898 H   0  0  0  0  0  0  0  0  0  0  0  0
   -7.5255    5.4983  -22.0228 H   0  0  0  0  0  0  0  0  0  0  0  0
    0.1002   -2.8977  -23.7860 H   0  0  0  0  0  0  0  0  0  0  0  0
   -9.2155    5.4899  -25.3535 H   0  0  0  0  0  0  0  0  0  0  0  0
  -11.3060    4.2826  -21.8487 H   0  0  0  0  0  0  0  0  0  0  0  0
   -9.3796    5.2785  -20.4858 H   0  0  0  0  0  0  0  0  0  0  0  0
    4.8472   -3.6899  -24.9916 H   0  0  0  0  0  0  0  0  0  0  0  0
    4.4627   -2.6448  -26.3653 H   0  0  0  0  0  0  0  0  0  0  0  0
    3.8991   -4.3458  -26.3386 H   0  0  0  0  0  0  0  0  0  0  0  0
   -5.5997    1.6191  -26.6920 H   0  0  0  0  0  0  0  0  0  0  0  0
   -5.0556    3.2980  -26.5309 H   0  0  0  0  0  0  0  0  0  0  0  0
   -1.3620   -0.9036  -25.8399 H   0  0  0  0  0  0  0  0  0  0  0  0
   -0.6093   -0.5113  -24.2603 H   0  0  0  0  0  0  0  0  0  0  0  0
   -9.5978    2.6625  -21.4204 H   0  0  0  0  0  0  0  0  0  0  0  0
   -3.6489    2.5902  -24.6140 H   0  0  0  0  0  0  0  0  0  0  0  0
   -2.0780    1.2718  -24.0674 H   0  0  0  0  0  0  0  0  0  0  0  0
  -10.1577    7.3754  -20.8190 H   0  0  0  0  0  0  0  0  0  0  0  0
  1  2  1  0  0  0  0
  1  3  2  0  0  0  0
  2  6  2  0  0  0  0
  3  8  1  0  0  0  0
  4  5  1  0  0  0  0
  4 10  2  0  0  0  0
  5 11  2  0  0  0  0
  6 12  1  0  0  0  0
  7  9  2  0  0  0  0
  7 10  1  0  0  0  0
  8 12  2  0  0  0  0
  8 20  1  0  0  0  0
  9 11  1  0  0  0  0
  9 21  1  0  0  0  0
 10 25  1  0  0  0  0
 11 27  1  0  0  0  0
 12 35  1  0  0  0  0
 13 26  1  0  0  0  0
 13 28  1  0  0  0  0
 13 31  2  0  0  0  0
 14 29  1  0  0  0  0
 14 30  1  0  0  0  0
 14 32  2  0  0  0  0
 15 16  1  0  0  0  0
 15 18  1  0  0  0  0
 16 20  1  0  0  0  0
 17 21  1  0  0  0  0
 17 22  1  0  0  0  0
 18 28  1  0  0  0  0
 19 23  1  0  0  0  0
 19 33  1  0  0  0  0
 20 28  1  0  0  0  0
 21 33  1  0  0  0  0
 22 23  1  0  0  0  0
 22 27  1  0  0  0  0
 23 34  1  0  0  0  0
 24 35  1  0  0  0  0
 25 29  1  0  0  0  0
 26 30  1  0  0  0  0
  1 36  1  0  0  0  0
  2 37  1  0  0  0  0
  3 38  1  0  0  0  0
  4 39  1  0  0  0  0
  5 40  1  0  0  0  0
  6 41  1  0  0  0  0
  7 42  1  0  0  0  0
 15 43  1  0  0  0  0
 15 44  1  0  0  0  0
 16 45  1  0  0  0  0
 16 46  1  0  0  0  0
 17 47  1  0  0  0  0
 17 48  1  0  0  0  0
 18 49  1  0  0  0  0
 18 50  1  0  0  0  0
 19 51  1  0  0  0  0
 19 52  1  0  0  0  0
 20 53  1  0  0  0  0
 21 54  1  0  0  0  0
 22 55  1  0  0  0  0
 23 56  1  0  0  0  0
 24 57  1  0  0  0  0
 24 58  1  0  0  0  0
 24 59  1  0  0  0  0
 25 60  1  0  0  0  0
 25 61  1  0  0  0  0
 26 62  1  0  0  0  0
 26 63  1  0  0  0  0
 27 64  1  0  0  0  0
 29 65  1  0  0  0  0
 30 66  1  0  0  0  0
 34 67  1  0  0  0  0
M  END
$$$$
